### 
### Created by X-TOOL on Mon Sep 10 21:12:47 2018
### 

@<TRIPOS>MOLECULE
1a4r_ligand
   42    44     1     0     0
SMALL
GAST_HUCK


@<TRIPOS>ATOM
      1 N3B       102.4860   24.8700   -2.9090 N.am      1 GNH        -0.2862
      2 PB        101.5220   25.8860   -2.4280 P.3       1 GNH         0.2419
      3 O1B       100.9830   25.4700   -1.0790 O.co2     1 GNH        -0.6025
      4 O2B       100.3500   26.2500   -3.2730 O.co2     1 GNH        -0.6025
      5 O3A       102.4090   27.1490   -2.1360 O.3       1 GNH        -0.1413
      6 PA        102.9800   27.8190   -0.7750 P.3       1 GNH         0.2974
      7 O1A       103.9320   26.8730   -0.1570 O.co2     1 GNH        -0.6125
      8 O2A       101.8500   28.3180    0.0570 O.co2     1 GNH        -0.6125
      9 O5'       103.7180   29.0170   -1.4980 O.3       1 GNH        -0.2475
     10 C5'       104.8640   28.8490   -2.3670 C.3       1 GNH         0.1128
     11 C4'       105.9930   29.8990   -2.1000 C.3       1 GNH         0.1189
     12 O4'       105.4820   31.1830   -2.4390 O.3       1 GNH        -0.3363
     13 C3'       106.4630   30.0620   -0.6570 C.3       1 GNH         0.1150
     14 O3'       107.8730   30.1930   -0.5940 O.3       1 GNH        -0.3864
     15 C2'       105.7350   31.2660   -0.0960 C.3       1 GNH         0.1387
     16 O2'       106.2980   31.8890    1.0590 O.3       1 GNH        -0.3836
     17 C1'       105.5820   32.1390   -1.3490 C.3       1 GNH         0.1992
     18 N9        104.3150   32.9430   -1.5100 N.pl3     1 GNH        -0.2101
     19 C8        103.0000   32.5360   -1.3540 C.2       1 GNH         0.0957
     20 N7        102.0730   33.4460   -1.5560 N.2       1 GNH        -0.3235
     21 C5        102.8070   34.5960   -1.8890 C.2       1 GNH         0.0926
     22 C6        102.3660   35.9710   -2.2360 C.2       1 GNH         0.2135
     23 O6        101.2060   36.3850   -2.3060 O.2       1 GNH        -0.4091
     24 N1        103.4480   36.8880   -2.5220 N.am      1 GNH        -0.1839
     25 C2        104.8390   36.5560   -2.4810 C.2       1 GNH         0.2340
     26 N2        105.7330   37.5170   -2.7670 N.pl3     1 GNH        -0.2807
     27 N3        105.2800   35.2710   -2.1570 N.2       1 GNH        -0.2765
     28 C4        104.2050   34.3230   -1.8660 C.2       1 GNH         0.1159
     29 H1        102.1650   23.9586   -3.1665 H         1 GNH         0.1618
     30 H2        103.4580   25.0953   -2.9763 H         1 GNH         0.1618
     31 H3        104.5306   28.9505   -3.4103 H         1 GNH         0.0648
     32 H4        105.2779   27.8419   -2.2106 H         1 GNH         0.0648
     33 H5        106.8572   29.6421   -2.7302 H         1 GNH         0.0651
     34 H6        106.1769   29.1711   -0.0788 H         1 GNH         0.0648
     35 H7        108.1405   30.2929    0.3121 H         1 GNH         0.2100
     36 H8        104.7318   30.9403    0.2163 H         1 GNH         0.0676
     37 H9        107.1751   32.1932    0.8575 H         1 GNH         0.2101
     38 H10       106.4561   32.8002   -1.4424 H         1 GNH         0.0998
     39 H11       102.7469   31.5134   -1.0779 H         1 GNH         0.1179
     40 H12       103.2047   37.8264   -2.7673 H         1 GNH         0.2515
     41 H13       106.7409   37.3058   -2.7451 H         1 GNH         0.1897
     42 H14       105.4106   38.4650   -3.0082 H         1 GNH         0.1897
@<TRIPOS>BOND
     1    2    1 am 
     2    2    3 ar 
     3    2    4 ar 
     4    2    5 1  
     5    5    6 1  
     6    6    7 ar 
     7    6    8 ar 
     8    6    9 1  
     9    9   10 1  
    10   10   11 1  
    11   11   12 1  
    12   11   13 1  
    13   12   17 1  
    14   13   14 1  
    15   13   15 1  
    16   15   16 1  
    17   17   15 1  
    18   17   18 1  
    19   18   19 1  
    20   18   28 1  
    21   19   20 2  
    22   20   21 1  
    23   21   22 1  
    24   21   28 2  
    25   22   23 2  
    26   22   24 am 
    27   24   25 am 
    28   25   26 1  
    29   25   27 2  
    30   27   28 1  
    31    1   29 1  
    32    1   30 1  
    33   10   31 1  
    34   10   32 1  
    35   11   33 1  
    36   13   34 1  
    37   14   35 1  
    38   15   36 1  
    39   16   37 1  
    40   17   38 1  
    41   19   39 1  
    42   24   40 1  
    43   26   41 1  
    44   26   42 1  
@<TRIPOS>SUBSTRUCTURE
     1 GNH         1

